[VMEM] WARNING: physical memory size is smaller than virtual memory size.

*** ChampSim Multicore Out-of-Order Simulator ***
Warmup Instructions: 200000000
Simulation Instructions: 500000000
Number of CPUs: 1
Page size: 4096

Off-chip DRAM Size: 16 GiB Channels: 1 Width: 64-bit Data Rate: 3205 MT/s
Heartbeat CPU 0 instructions: 10000002 cycles: 2558380 heartbeat IPC: 3.909 cumulative IPC: 3.909 (Simulation time: 00 hr 00 min 46 sec)
Heartbeat CPU 0 instructions: 20000002 cycles: 5147742 heartbeat IPC: 3.862 cumulative IPC: 3.885 (Simulation time: 00 hr 01 min 32 sec)
Heartbeat CPU 0 instructions: 30000004 cycles: 7661432 heartbeat IPC: 3.978 cumulative IPC: 3.916 (Simulation time: 00 hr 02 min 18 sec)
Heartbeat CPU 0 instructions: 40000006 cycles: 10176673 heartbeat IPC: 3.976 cumulative IPC: 3.931 (Simulation time: 00 hr 03 min 04 sec)
Heartbeat CPU 0 instructions: 50000010 cycles: 12680456 heartbeat IPC: 3.994 cumulative IPC: 3.943 (Simulation time: 00 hr 03 min 50 sec)
Heartbeat CPU 0 instructions: 60000010 cycles: 15184705 heartbeat IPC: 3.993 cumulative IPC: 3.951 (Simulation time: 00 hr 04 min 36 sec)
Heartbeat CPU 0 instructions: 70000012 cycles: 17688490 heartbeat IPC: 3.994 cumulative IPC: 3.957 (Simulation time: 00 hr 05 min 22 sec)
Heartbeat CPU 0 instructions: 80000014 cycles: 20192678 heartbeat IPC: 3.993 cumulative IPC: 3.962 (Simulation time: 00 hr 06 min 08 sec)
Heartbeat CPU 0 instructions: 90000016 cycles: 22712656 heartbeat IPC: 3.968 cumulative IPC: 3.963 (Simulation time: 00 hr 06 min 54 sec)
Heartbeat CPU 0 instructions: 100000017 cycles: 25216433 heartbeat IPC: 3.994 cumulative IPC: 3.966 (Simulation time: 00 hr 07 min 40 sec)
Heartbeat CPU 0 instructions: 110000017 cycles: 27720266 heartbeat IPC: 3.994 cumulative IPC: 3.968 (Simulation time: 00 hr 08 min 26 sec)
Heartbeat CPU 0 instructions: 120000018 cycles: 30224186 heartbeat IPC: 3.994 cumulative IPC: 3.97 (Simulation time: 00 hr 09 min 12 sec)
Heartbeat CPU 0 instructions: 130000022 cycles: 32728938 heartbeat IPC: 3.992 cumulative IPC: 3.972 (Simulation time: 00 hr 09 min 58 sec)
Heartbeat CPU 0 instructions: 140000026 cycles: 35235030 heartbeat IPC: 3.99 cumulative IPC: 3.973 (Simulation time: 00 hr 10 min 45 sec)
Heartbeat CPU 0 instructions: 150000026 cycles: 37739823 heartbeat IPC: 3.992 cumulative IPC: 3.975 (Simulation time: 00 hr 11 min 31 sec)
Heartbeat CPU 0 instructions: 160000030 cycles: 40243658 heartbeat IPC: 3.994 cumulative IPC: 3.976 (Simulation time: 00 hr 12 min 17 sec)
Heartbeat CPU 0 instructions: 170000033 cycles: 42748110 heartbeat IPC: 3.993 cumulative IPC: 3.977 (Simulation time: 00 hr 13 min 03 sec)
Heartbeat CPU 0 instructions: 180000035 cycles: 45254622 heartbeat IPC: 3.99 cumulative IPC: 3.977 (Simulation time: 00 hr 13 min 49 sec)
Heartbeat CPU 0 instructions: 190000038 cycles: 47757995 heartbeat IPC: 3.995 cumulative IPC: 3.978 (Simulation time: 00 hr 14 min 35 sec)
Warmup finished CPU 0 instructions: 200000003 cycles: 50307615 cumulative IPC: 3.976 (Simulation time: 00 hr 15 min 21 sec)
Warmup complete CPU 0 instructions: 200000003 cycles: 50307615 cumulative IPC: 3.976 (Simulation time: 00 hr 15 min 21 sec)
Heartbeat CPU 0 instructions: 200000038 cycles: 50307622 heartbeat IPC: 3.922 cumulative IPC: 5 (Simulation time: 00 hr 15 min 21 sec)
Heartbeat CPU 0 instructions: 210000039 cycles: 54874142 heartbeat IPC: 2.19 cumulative IPC: 2.19 (Simulation time: 00 hr 16 min 30 sec)
Heartbeat CPU 0 instructions: 220000041 cycles: 59940550 heartbeat IPC: 1.974 cumulative IPC: 2.076 (Simulation time: 00 hr 17 min 40 sec)
Heartbeat CPU 0 instructions: 230000041 cycles: 64966482 heartbeat IPC: 1.99 cumulative IPC: 2.047 (Simulation time: 00 hr 18 min 50 sec)
Heartbeat CPU 0 instructions: 240000045 cycles: 70101077 heartbeat IPC: 1.948 cumulative IPC: 2.021 (Simulation time: 00 hr 20 min 01 sec)
Heartbeat CPU 0 instructions: 250000048 cycles: 75089701 heartbeat IPC: 2.005 cumulative IPC: 2.018 (Simulation time: 00 hr 21 min 11 sec)
Heartbeat CPU 0 instructions: 260000049 cycles: 80214365 heartbeat IPC: 1.951 cumulative IPC: 2.006 (Simulation time: 00 hr 22 min 21 sec)
Heartbeat CPU 0 instructions: 270000051 cycles: 85397403 heartbeat IPC: 1.929 cumulative IPC: 1.995 (Simulation time: 00 hr 23 min 31 sec)
Heartbeat CPU 0 instructions: 280000051 cycles: 90469815 heartbeat IPC: 1.971 cumulative IPC: 1.992 (Simulation time: 00 hr 24 min 41 sec)
Heartbeat CPU 0 instructions: 290000051 cycles: 95633406 heartbeat IPC: 1.937 cumulative IPC: 1.986 (Simulation time: 00 hr 25 min 51 sec)
Heartbeat CPU 0 instructions: 300000055 cycles: 100711513 heartbeat IPC: 1.969 cumulative IPC: 1.984 (Simulation time: 00 hr 27 min 01 sec)
Heartbeat CPU 0 instructions: 310000057 cycles: 105886321 heartbeat IPC: 1.932 cumulative IPC: 1.979 (Simulation time: 00 hr 28 min 12 sec)
Heartbeat CPU 0 instructions: 320000057 cycles: 110948091 heartbeat IPC: 1.976 cumulative IPC: 1.979 (Simulation time: 00 hr 29 min 21 sec)
Heartbeat CPU 0 instructions: 330000058 cycles: 116128078 heartbeat IPC: 1.931 cumulative IPC: 1.975 (Simulation time: 00 hr 30 min 32 sec)
Heartbeat CPU 0 instructions: 340000061 cycles: 121179733 heartbeat IPC: 1.98 cumulative IPC: 1.975 (Simulation time: 00 hr 31 min 42 sec)
Heartbeat CPU 0 instructions: 350000062 cycles: 126341485 heartbeat IPC: 1.937 cumulative IPC: 1.973 (Simulation time: 00 hr 32 min 52 sec)
Heartbeat CPU 0 instructions: 360000066 cycles: 131400761 heartbeat IPC: 1.977 cumulative IPC: 1.973 (Simulation time: 00 hr 34 min 02 sec)
Heartbeat CPU 0 instructions: 370000067 cycles: 136569539 heartbeat IPC: 1.935 cumulative IPC: 1.971 (Simulation time: 00 hr 35 min 12 sec)
Heartbeat CPU 0 instructions: 380000067 cycles: 141649156 heartbeat IPC: 1.969 cumulative IPC: 1.971 (Simulation time: 00 hr 36 min 22 sec)
Heartbeat CPU 0 instructions: 390000070 cycles: 146815553 heartbeat IPC: 1.936 cumulative IPC: 1.969 (Simulation time: 00 hr 37 min 32 sec)
Heartbeat CPU 0 instructions: 400000072 cycles: 151994092 heartbeat IPC: 1.931 cumulative IPC: 1.967 (Simulation time: 00 hr 38 min 43 sec)
Heartbeat CPU 0 instructions: 410000073 cycles: 157078951 heartbeat IPC: 1.967 cumulative IPC: 1.967 (Simulation time: 00 hr 39 min 53 sec)
Heartbeat CPU 0 instructions: 420000073 cycles: 162142257 heartbeat IPC: 1.975 cumulative IPC: 1.967 (Simulation time: 00 hr 41 min 03 sec)
Heartbeat CPU 0 instructions: 430000073 cycles: 167301390 heartbeat IPC: 1.938 cumulative IPC: 1.966 (Simulation time: 00 hr 42 min 13 sec)
Heartbeat CPU 0 instructions: 440000075 cycles: 172398024 heartbeat IPC: 1.962 cumulative IPC: 1.966 (Simulation time: 00 hr 43 min 23 sec)
Heartbeat CPU 0 instructions: 450000075 cycles: 177474387 heartbeat IPC: 1.97 cumulative IPC: 1.966 (Simulation time: 00 hr 44 min 32 sec)
Heartbeat CPU 0 instructions: 460000076 cycles: 182531373 heartbeat IPC: 1.977 cumulative IPC: 1.966 (Simulation time: 00 hr 45 min 42 sec)
Heartbeat CPU 0 instructions: 470000076 cycles: 187724098 heartbeat IPC: 1.926 cumulative IPC: 1.965 (Simulation time: 00 hr 46 min 52 sec)
Heartbeat CPU 0 instructions: 480000076 cycles: 192794887 heartbeat IPC: 1.972 cumulative IPC: 1.965 (Simulation time: 00 hr 48 min 01 sec)
Heartbeat CPU 0 instructions: 490000080 cycles: 197950646 heartbeat IPC: 1.94 cumulative IPC: 1.964 (Simulation time: 00 hr 49 min 11 sec)
Heartbeat CPU 0 instructions: 500000084 cycles: 203013672 heartbeat IPC: 1.975 cumulative IPC: 1.965 (Simulation time: 00 hr 50 min 21 sec)
Heartbeat CPU 0 instructions: 510000086 cycles: 208173570 heartbeat IPC: 1.938 cumulative IPC: 1.964 (Simulation time: 00 hr 51 min 31 sec)
Heartbeat CPU 0 instructions: 520000086 cycles: 213233134 heartbeat IPC: 1.976 cumulative IPC: 1.964 (Simulation time: 00 hr 52 min 41 sec)
Heartbeat CPU 0 instructions: 530000088 cycles: 218378005 heartbeat IPC: 1.944 cumulative IPC: 1.963 (Simulation time: 00 hr 53 min 51 sec)
Heartbeat CPU 0 instructions: 540000089 cycles: 223425166 heartbeat IPC: 1.981 cumulative IPC: 1.964 (Simulation time: 00 hr 55 min 00 sec)
Heartbeat CPU 0 instructions: 550000091 cycles: 228656586 heartbeat IPC: 1.912 cumulative IPC: 1.962 (Simulation time: 00 hr 56 min 11 sec)
Heartbeat CPU 0 instructions: 560000091 cycles: 233724443 heartbeat IPC: 1.973 cumulative IPC: 1.963 (Simulation time: 00 hr 57 min 21 sec)
Heartbeat CPU 0 instructions: 570000093 cycles: 238873592 heartbeat IPC: 1.942 cumulative IPC: 1.962 (Simulation time: 00 hr 58 min 30 sec)
Heartbeat CPU 0 instructions: 580000097 cycles: 244015819 heartbeat IPC: 1.945 cumulative IPC: 1.962 (Simulation time: 00 hr 59 min 40 sec)
Heartbeat CPU 0 instructions: 590000100 cycles: 249070040 heartbeat IPC: 1.979 cumulative IPC: 1.962 (Simulation time: 01 hr 00 min 49 sec)
Heartbeat CPU 0 instructions: 600000101 cycles: 254204624 heartbeat IPC: 1.948 cumulative IPC: 1.962 (Simulation time: 01 hr 01 min 58 sec)
Heartbeat CPU 0 instructions: 610000101 cycles: 259342394 heartbeat IPC: 1.946 cumulative IPC: 1.961 (Simulation time: 01 hr 03 min 08 sec)
Heartbeat CPU 0 instructions: 620000104 cycles: 264401115 heartbeat IPC: 1.977 cumulative IPC: 1.962 (Simulation time: 01 hr 04 min 17 sec)
Heartbeat CPU 0 instructions: 630000105 cycles: 269535187 heartbeat IPC: 1.948 cumulative IPC: 1.961 (Simulation time: 01 hr 05 min 27 sec)
Heartbeat CPU 0 instructions: 640000106 cycles: 274597359 heartbeat IPC: 1.975 cumulative IPC: 1.962 (Simulation time: 01 hr 06 min 36 sec)
Heartbeat CPU 0 instructions: 650000106 cycles: 279722034 heartbeat IPC: 1.951 cumulative IPC: 1.962 (Simulation time: 01 hr 07 min 45 sec)
Heartbeat CPU 0 instructions: 660000108 cycles: 284853979 heartbeat IPC: 1.949 cumulative IPC: 1.961 (Simulation time: 01 hr 08 min 55 sec)
Heartbeat CPU 0 instructions: 670000111 cycles: 289913757 heartbeat IPC: 1.976 cumulative IPC: 1.962 (Simulation time: 01 hr 10 min 04 sec)
Heartbeat CPU 0 instructions: 680000112 cycles: 295014346 heartbeat IPC: 1.961 cumulative IPC: 1.962 (Simulation time: 01 hr 11 min 13 sec)
Heartbeat CPU 0 instructions: 690000115 cycles: 300134338 heartbeat IPC: 1.953 cumulative IPC: 1.961 (Simulation time: 01 hr 12 min 22 sec)
Simulation finished CPU 0 instructions: 500000000 cycles: 254894298 cumulative IPC: 1.962 (Simulation time: 01 hr 13 min 31 sec)
Simulation complete CPU 0 instructions: 500000000 cycles: 254894298 cumulative IPC: 1.962 (Simulation time: 01 hr 13 min 31 sec)

ChampSim completed all CPUs

=== Simulation ===
CPU 0 runs /home/e19275/ChampSim/traces/dpc3/456.hmmer-327B.champsimtrace.xz

Region of Interest Statistics

CPU 0 cumulative IPC: 1.962 instructions: 500000000 cycles: 254894298
CPU 0 Branch Prediction Accuracy: 99.42% MPKI: 0.2538 Average ROB Occupancy at Mispredict: 112.4
Branch type MPKI
BRANCH_DIRECT_JUMP: 1.2e-05
BRANCH_INDIRECT: 0.000228
BRANCH_CONDITIONAL: 0.2536
BRANCH_DIRECT_CALL: 4e-06
BRANCH_INDIRECT_CALL: 1.6e-05
BRANCH_RETURN: 6e-06

cpu0->cpu0_STLB TOTAL        ACCESS:      30383 HIT:      29523 MISS:        860 MSHR_MERGE:          0
cpu0->cpu0_STLB LOAD         ACCESS:      30383 HIT:      29523 MISS:        860 MSHR_MERGE:          0
cpu0->cpu0_STLB RFO          ACCESS:          0 HIT:          0 MISS:          0 MSHR_MERGE:          0
cpu0->cpu0_STLB PREFETCH     ACCESS:          0 HIT:          0 MISS:          0 MSHR_MERGE:          0
cpu0->cpu0_STLB WRITE        ACCESS:          0 HIT:          0 MISS:          0 MSHR_MERGE:          0
cpu0->cpu0_STLB TRANSLATION  ACCESS:          0 HIT:          0 MISS:          0 MSHR_MERGE:          0
cpu0->cpu0_STLB PREFETCH REQUESTED:          0 ISSUED:          0 USEFUL:          0 USELESS:          0
cpu0->cpu0_STLB AVERAGE MISS LATENCY: 523.6 cycles
cpu0->cpu0_L2C TOTAL        ACCESS:    3371850 HIT:    1992881 MISS:    1378969 MSHR_MERGE:          0
cpu0->cpu0_L2C LOAD         ACCESS:     708070 HIT:     657861 MISS:      50209 MSHR_MERGE:          0
cpu0->cpu0_L2C RFO          ACCESS:    1330307 HIT:       2704 MISS:    1327603 MSHR_MERGE:          0
cpu0->cpu0_L2C PREFETCH     ACCESS:          0 HIT:          0 MISS:          0 MSHR_MERGE:          0
cpu0->cpu0_L2C WRITE        ACCESS:    1332338 HIT:    1332225 MISS:        113 MSHR_MERGE:          0
cpu0->cpu0_L2C TRANSLATION  ACCESS:       1135 HIT:         91 MISS:       1044 MSHR_MERGE:          0
cpu0->cpu0_L2C PREFETCH REQUESTED:          0 ISSUED:          0 USEFUL:          0 USELESS:          0
cpu0->cpu0_L2C AVERAGE MISS LATENCY: 195.3 cycles
cpu0->cpu0_L1I TOTAL        ACCESS:   99325764 HIT:   99325754 MISS:         10 MSHR_MERGE:          0
cpu0->cpu0_L1I LOAD         ACCESS:   99325764 HIT:   99325754 MISS:         10 MSHR_MERGE:          0
cpu0->cpu0_L1I RFO          ACCESS:          0 HIT:          0 MISS:          0 MSHR_MERGE:          0
cpu0->cpu0_L1I PREFETCH     ACCESS:          0 HIT:          0 MISS:          0 MSHR_MERGE:          0
cpu0->cpu0_L1I WRITE        ACCESS:          0 HIT:          0 MISS:          0 MSHR_MERGE:          0
cpu0->cpu0_L1I TRANSLATION  ACCESS:          0 HIT:          0 MISS:          0 MSHR_MERGE:          0
cpu0->cpu0_L1I PREFETCH REQUESTED:          0 ISSUED:          0 USEFUL:          0 USELESS:          0
cpu0->cpu0_L1I AVERAGE MISS LATENCY: 265 cycles
cpu0->cpu0_L1D TOTAL        ACCESS:  222989975 HIT:  196434645 MISS:   26555330 MSHR_MERGE:   24515828
cpu0->cpu0_L1D LOAD         ACCESS:  158018448 HIT:  157287814 MISS:     730634 MSHR_MERGE:      22574
cpu0->cpu0_L1D RFO          ACCESS:          0 HIT:          0 MISS:          0 MSHR_MERGE:          0
cpu0->cpu0_L1D PREFETCH     ACCESS:          0 HIT:          0 MISS:          0 MSHR_MERGE:          0
cpu0->cpu0_L1D WRITE        ACCESS:   64969807 HIT:   39146249 MISS:   25823558 MSHR_MERGE:   24493251
cpu0->cpu0_L1D TRANSLATION  ACCESS:       1720 HIT:        582 MISS:       1138 MSHR_MERGE:          3
cpu0->cpu0_L1D PREFETCH REQUESTED:          0 ISSUED:          0 USEFUL:          0 USELESS:          0
cpu0->cpu0_L1D AVERAGE MISS LATENCY: 140.7 cycles
cpu0->cpu0_ITLB TOTAL        ACCESS:   91583018 HIT:   91583018 MISS:          0 MSHR_MERGE:          0
cpu0->cpu0_ITLB LOAD         ACCESS:   91583018 HIT:   91583018 MISS:          0 MSHR_MERGE:          0
cpu0->cpu0_ITLB RFO          ACCESS:          0 HIT:          0 MISS:          0 MSHR_MERGE:          0
cpu0->cpu0_ITLB PREFETCH     ACCESS:          0 HIT:          0 MISS:          0 MSHR_MERGE:          0
cpu0->cpu0_ITLB WRITE        ACCESS:          0 HIT:          0 MISS:          0 MSHR_MERGE:          0
cpu0->cpu0_ITLB TRANSLATION  ACCESS:          0 HIT:          0 MISS:          0 MSHR_MERGE:          0
cpu0->cpu0_ITLB PREFETCH REQUESTED:          0 ISSUED:          0 USEFUL:          0 USELESS:          0
cpu0->cpu0_ITLB AVERAGE MISS LATENCY: - cycles
cpu0->cpu0_DTLB TOTAL        ACCESS:  212340289 HIT:  212282666 MISS:      57623 MSHR_MERGE:      27240
cpu0->cpu0_DTLB LOAD         ACCESS:  212340289 HIT:  212282666 MISS:      57623 MSHR_MERGE:      27240
cpu0->cpu0_DTLB RFO          ACCESS:          0 HIT:          0 MISS:          0 MSHR_MERGE:          0
cpu0->cpu0_DTLB PREFETCH     ACCESS:          0 HIT:          0 MISS:          0 MSHR_MERGE:          0
cpu0->cpu0_DTLB WRITE        ACCESS:          0 HIT:          0 MISS:          0 MSHR_MERGE:          0
cpu0->cpu0_DTLB TRANSLATION  ACCESS:          0 HIT:          0 MISS:          0 MSHR_MERGE:          0
cpu0->cpu0_DTLB PREFETCH REQUESTED:          0 ISSUED:          0 USEFUL:          0 USELESS:          0
cpu0->cpu0_DTLB AVERAGE MISS LATENCY: 19.86 cycles
cpu0->LLC TOTAL        ACCESS:    2708940 HIT:    1503136 MISS:    1205804 MSHR_MERGE:          0
cpu0->LLC LOAD         ACCESS:      50209 HIT:      23352 MISS:      26857 MSHR_MERGE:          0
cpu0->LLC RFO          ACCESS:    1327603 HIT:     149812 MISS:    1177791 MSHR_MERGE:          0
cpu0->LLC PREFETCH     ACCESS:          0 HIT:          0 MISS:          0 MSHR_MERGE:          0
cpu0->LLC WRITE        ACCESS:    1330084 HIT:    1329971 MISS:        113 MSHR_MERGE:          0
cpu0->LLC TRANSLATION  ACCESS:       1044 HIT:          1 MISS:       1043 MSHR_MERGE:          0
cpu0->LLC PREFETCH REQUESTED:          0 ISSUED:          0 USEFUL:          0 USELESS:          0
cpu0->LLC AVERAGE MISS LATENCY: 205.2 cycles

DRAM Statistics

Channel 0 RQ ROW_BUFFER_HIT:        217
  ROW_BUFFER_MISS:    1205467
  AVG DBUS CONGESTED CYCLE: 7.446
Channel 0 WQ ROW_BUFFER_HIT:      39497
  ROW_BUFFER_MISS:    1142138
  FULL:          0
Channel 0 REFRESHES ISSUED:      21241
